#------------------------------------------------------------------------------
#                  GEOS-Chem Global Chemical Transport Model                  #
#------------------------------------------------------------------------------
#BOP
#
# !MODULE: soil_cn.rc
#
# !DESCRIPTION: Resource file that defines the HadGEM2 soil CN filename, 
#  variables, and attributes for use with the ncCode* scripts.  Also defines 
#  the names of the files where Fortran code will be written to. 
#\\
#\\
# !REMARKS:
#  This file has been customized to generate GEOS-Chem Fortran code that
#  will read data from a HadGEM2 soil data file. 
#
# !REVISION HISTORY: 
#  08 Feb 2019 - J. Lam - Initial version
#------------------------------------------------------------------------------

### !FILENAME:
Fortran Read File       = soil_read.F90
netCDF FileHandle       = fId
netCDF FileName         = HadGEM2ES_Soil_Ancil.nc

### !DIMENSIONS:     
lon                     = I_SOIL
lat                     = J_SOIL

### !VARIABLES:		
lon                     = REAL*4::lon
lon:units               = degrees_east
#-            
lat                     = REAL*4::lat
lat:units               = degrees_north 
#-            
THETA_WILT              = REAL*4::lon,lat
THETA_WILT:units        = fraction
#-            
THETA_CRIT              = REAL*4::lon,lat
THETA_CRIT:units        = fraction
#-            
THETA_SATU              = REAL*4::lon,lat
THETA_SATU:units        = fraction

#EOP
